6
ch3sh_dimer, factor= 1.0, energy= -3.15
 C         0.896802       -1.790414        0.800079
 S        -0.430447       -1.911330       -0.426467
 H         0.530684       -2.284804        1.695862
 H         1.120799       -0.753008        1.029395
 H         1.792823       -2.300782        0.461195
 H         0.177021       -1.201173       -1.377499
