9
ch3sch3_benzene_c2v, factor= 1.0, energy= -1.12
S         0.000000        0.000000       -1.639862
C         0.000000       -1.357444       -2.822962
C         0.000000        1.357444       -2.822962
H        -0.889712        1.330259       -3.449780
H         0.000000        2.284255       -2.254048
H         0.889712        1.330259       -3.449780
H         0.889712       -1.330259       -3.449780
H         0.000000       -2.284255       -2.254048
H        -0.889712       -1.330259       -3.449780
