6
ch3sh_dimer, factor= 1.0, energy= -3.15
 C        -0.983954        1.768721        0.716523
 S         0.423029        1.812899       -0.422374
 H        -1.417406        0.777911        0.608658
 H        -1.727877        2.513526        0.452324
 H        -0.663231        1.905316        1.744643
 H         0.828754        3.049171       -0.132248
