6
ch3sh_benzene_cs, factor= 1.0, energy= -3.50
S         0.779515        2.257972        0.000000
C        -1.015571        2.488997        0.000000
H         0.754913        0.923350        0.000000
H        -1.190627        3.561804        0.000000
H        -1.466354        2.058713       -0.889264
H        -1.466354        2.058713        0.889264
