12
ch3sch3_benzene_c2v, factor= 1.0, energy= -1.12
C         0.000000        1.392995        1.867031
C        -1.207016        0.696489        1.867722
C        -1.207016       -0.696489        1.867722
C         0.000000       -1.392995        1.867031
C         1.207016       -0.696489        1.867722
C         1.207016        0.696489        1.867722
H        -2.143728        1.236997        1.864666
H        -2.143728       -1.236997        1.864666
H         0.000000       -2.474747        1.867030
H         2.143728       -1.236997        1.864666
H         2.143728        1.236997        1.864666
H         0.000000        2.474747        1.867030
