42
HF/6-31G**  Standard Conv   Energy: -984.61147086018
  C         5.1962844882      1.4042075500      1.6483275373 
  H         5.8376650899      1.5761374525       .7945763746 
  H         4.4810697820       .6241396932      1.4181667837 
  H         4.6637356779      2.3247565705      1.8605110370 
  C         6.0593640348      1.0804982128      2.8409177003 
  O         7.0902791845      1.6730498173      3.0589512209 
  N         5.6183983828       .1060198886      3.6639234610 
  H         4.6909283749      -.2279084231      3.5443095753 
  C         6.2899950514      -.2063025385      4.9166250685 
  H         5.6185478320      -.8650815709      5.4543391884 
  C         7.6092766866      -.9430823275      4.6925307117 
  H         8.0651065660     -1.2112249359      5.6402961697 
  H         7.4149955518     -1.8576456178      4.1448549170 
  H         8.3048641618      -.3494326364      4.1135372500 
  C         6.3337668956      1.0540590912      5.7958151512 
  O         5.2957218006      1.5795178111      6.1120145740 
  N         7.5285841382      1.5136546442      6.2036427478 
  H         8.3530502202      1.1430122519      5.7926472563 
  C         7.6432864471      2.6829653522      7.0576497360 
  H         6.9529185765      2.5658433851      7.8815635303 
  C         9.0675842902      2.7946015540      7.5980716585 
  H         9.1401984193      3.6573370786      8.2456529545 
  H         9.3282987705      1.9061023674      8.1629496169 
  H         9.7836308457      2.9146396348      6.7890456365 
  C         7.2344986654      4.0073709027      6.4053299126 
  O         7.0437743508      4.9565627032      7.1187037546 
  N         7.1324485493      4.0408051674      5.0644193098 
  H         7.3054734418      3.2159421186      4.5319378917 
  C         6.6885379654      5.2183206326      4.3462386943 
  H         6.7846588459      6.0566953764      5.0226796097 
  C         7.5557622213      5.4552347461      3.1104726400 
  H         7.2002212154      6.3218365021      2.5714506876 
  H         8.5852909216      5.6157891976      3.4110247620 
  H         7.5234058355      4.5956919601      2.4479124817 
  C         5.2059246152      5.1840160220      3.9559015214 
  O         4.7571512579      6.0522119610      3.2518631537 
  N         4.4533305172      4.1718231164      4.4256533869 
  H         4.8296408705      3.5425081083      5.0979084811 
  C         3.0196659637      4.1767407756      4.2291324281 
  H         2.5424169581      4.9907559270      4.7648267770 
  H         2.7837775366      4.2852212983      3.1785576874 
  H         2.6227853075      3.2367238969      4.5907043417 
