42
HF/6-31G**  Standard Conv   Energy: -984.60925835977
  C         5.1872781933      1.6899534342      2.4334689738 
  H         5.0255929111       .8268777394      1.8011104738 
  H         4.2538166506      2.2393172863      2.4930773492 
  H         5.9469345079      2.3249944869      1.9949004189 
  C         5.5430394062      1.2123370187      3.8191498029 
  O         4.9304337862       .3295648532      4.3682018810 
  N         6.5836143878      1.8261609953      4.4273504719 
  H         6.9150299365      2.6860854719      4.0540641501 
  C         6.8813143870      1.5324472701      5.8118008312 
  H         6.9669361862       .4580990840      5.9067644757 
  C         8.1965001389      2.1926894552      6.2184991755 
  H         8.4374034290      1.9510539684      7.2475897985 
  H         9.0024805199      1.8400605739      5.5850107294 
  H         8.1212540931      3.2710582819      6.1346536731 
  C         5.7556250011      2.0510612102      6.7112827532 
  O         5.3799113448      3.1940176087      6.6053210494 
  N         5.2778563764      1.1755200132      7.6105438357 
  H         5.5027078753       .2193302787      7.4563114941 
  C         4.2511618612      1.4274159150      8.6213288207 
  H         4.2427157810       .5448486195      9.2447851194 
  C         4.5586829330      2.6354016036      9.5102161977 
  H         3.8091428046      2.6959108434     10.2914838228 
  H         5.5302163873      2.5095784776      9.9754849400 
  H         4.5606208248      3.5594526826      8.9508031181 
  C         2.8210018400      1.4936243125      8.0693364445 
  O         1.9607250388       .8412053624      8.5952942209 
  N         2.6015077281      2.3214021313      7.0256076731 
  H         3.3519996385      2.9079830981      6.7281162388 
  C         1.2683955932      2.5715189243      6.5105160693 
  H          .5635823842      2.2741101733      7.2742421285 
  C         1.0873578313      4.0584678655      6.2027258728 
  H          .0919273856      4.2336975837      5.8197658286 
  H         1.2342614004      4.6458630054      7.1024389210 
  H         1.8045945374      4.3915241618      5.4565220936 
  C          .8880333929      1.7443713182      5.2792872337 
  O         -.2257441645      1.8493428996      4.8308879769 
  N         1.8199903169       .9498875989      4.7340384449 
  H         2.7105092376       .8523159673      5.1614802922 
  C         1.4979209861       .0923280356      3.6139581212 
  H          .7417131015      -.6374999681      3.8811162255 
  H         1.1203898943       .6754540482      2.7827662040 
  H         2.4008927127      -.4204997112      3.3143188945 
