42
HF/6-31G**  Standard Conv   Energy: -984.61335508942
  C         8.5038625653     -1.5453291160      1.3416526778 
  H         8.5107023238     -1.3885047103       .2720894413 
  H         9.4931406873     -1.3652289318      1.7452044647 
  H         8.2348617298     -2.5795739115      1.5304340598 
  C         7.4480563087      -.6578466296      1.9553184956 
  O         6.4053409217      -.4298680022      1.3931671606 
  N         7.7252573360      -.1607510272      3.1807606329 
  H         8.6195930474      -.3229950838      3.5832762817 
  C         6.7653215784       .6213586268      3.9475084581 
  H         5.7809452712       .2487160810      3.6946468364 
  C         7.0204433597       .4593056152      5.4385361095 
  H         6.2926862836      1.0239779133      6.0084024011 
  H         6.9424192309      -.5863125216      5.7146595290 
  H         8.0022089813       .8315937895      5.7052648836 
  C         6.8558212513      2.0915172973      3.5219913799 
  O         7.4560729734      2.9086043277      4.1717967723 
  N         6.2135945529      2.3966242263      2.3731319244 
  H         5.9004369558      1.6238798268      1.8215567843 
  C         6.4683650400      3.6563636578      1.6907217850 
  H         7.5352961313      3.8402878748      1.6541093907 
  C         5.9124292997      3.5916415274       .2683633088 
  H         6.1119417616      4.5252376746      -.2401725405 
  H         6.3808802725      2.7840855424      -.2843380106 
  H         4.8396321738      3.4241147872       .2786532262 
  C         5.8987918449      4.8831403823      2.4012077548 
  O         6.3288322535      5.9682074730      2.1191785399 
  N         4.9032322944      4.6796229202      3.2872750768 
  H         4.6047407768      3.7460662707      3.4493801230 
  C         4.2913605341      5.7537284448      4.0438738125 
  H         4.5260757570      6.6727327219      3.5243637439 
  C         2.7751792808      5.5769458170      4.1041209977 
  H         2.3338206969      6.3817117067      4.6738116805 
  H         2.3623760496      5.5745947570      3.1014613545 
  H         2.5109471094      4.6385783846      4.5862926619 
  C         4.8592694250      5.9291761932      5.4575847745 
  O         4.3349705782      6.7131800051      6.2075172827 
  N         5.9280226313      5.1945798311      5.8002660945 
  H         6.3905821384      4.6328413578      5.1226288986 
  C         6.5700778829      5.3874362118      7.0824880073 
  H         5.8507618532      5.2823304258      7.8842868431 
  H         7.3409053314      4.6359866463      7.1934395465 
  H         7.0204640722      6.3712973092      7.1602557173 
