42
HF/6-31G**  Standard Conv   Energy: -984.61148876855
  C        11.9121761757       .4155862042      4.8744891242 
  H        12.5686737444      1.2389131914      4.6325612593 
  H        11.6587639354       .4420280342      5.9282928512 
  H        12.4370479843      -.5128813556      4.6709686321 
  C        10.6912093697       .4864795635      3.9887207116 
  O        10.7123491436      1.0059387701      2.9052219122 
  N         9.5558559680      -.0714607052      4.4875038794 
  H         9.6280728840      -.5896359017      5.3336731862 
  C         8.4219587572      -.3666296060      3.6229119907 
  H         8.7810653098      -.8101067444      2.7022626352 
  C         7.4769215925     -1.3423322533      4.3229575614 
  H         6.6367728926     -1.5552693994      3.6769396929 
  H         7.9887947106     -2.2733192624      4.5451906591 
  H         7.1007813240      -.9214514191      5.2512705386 
  C         7.6326521254       .8595708215      3.1668251676 
  O         6.8362433935       .7365008896      2.2775483886 
  N         7.8489435620      2.0251757698      3.8101498579 
  H         8.5283065842      2.0495865553      4.5336038741 
  C         7.1789513178      3.2486237917      3.4263614582 
  H         6.2100826461      2.9793010425      3.0303142218 
  C         7.0000124518      4.1609159417      4.6398086436 
  H         6.4927030006      5.0682884272      4.3446417028 
  H         6.4157206374      3.6557510041      5.4007936826 
  H         7.9619767335      4.4335899447      5.0675681702 
  C         7.8646086033      4.0288971412      2.3014270013 
  O         7.3093201299      5.0143396258      1.8694342074 
  N         9.0575839290      3.6079487816      1.8644315355 
  H         9.4320213487      2.7417006968      2.1872223688 
  C         9.8075172904      4.3261773927       .8384420220 
  H         9.5511474102      5.3729137409       .9415306303 
  C        11.3009496289      4.1274230496      1.0521645973 
  H        11.8605410533      4.6667521083       .2982037624 
  H        11.5835172548      4.4977194218      2.0323283063 
  H        11.5659527725      3.0808655998       .9784230175 
  C         9.3785857764      3.8682579623      -.5643811480 
  O        10.0989643997      3.2099627316     -1.2666020904 
  N         8.1512078341      4.2736780815      -.9386159388 
  H         7.5807735114      4.7316101223      -.2620254547 
  C         7.5616296090      3.8182675077     -2.1780900212 
  H         7.3145509591      2.7617029590     -2.1440636728 
  H         6.6567590870      4.3841752807     -2.3594213942 
  H         8.2486154854      3.9792517126     -2.9979394240 
