42
HF/6-31G**  Standard Conv   Energy: -984.60900069669
  C        11.1385188784     -1.0549070824      3.4468096160 
  H        12.1274579605     -1.4234373196      3.2137547356 
  H        10.4648952488     -1.2687902296      2.6252751257 
  H        11.1982574026       .0214653000      3.5745787055 
  C        10.6824715699     -1.6691913430      4.7484008049 
  O        11.4455954048     -1.9347678988      5.6373853073 
  N         9.3486471606     -1.9051201149      4.8684248443 
  H         8.7417479237     -1.5477942546      4.1660479953 
  C         8.7709162031     -2.2416340772      6.1585379711 
  H         9.2204927678     -1.6220859464      6.9234286452 
  C         7.2599712735     -2.0116349182      6.1332978595 
  H         6.8383972966     -2.2667590543      7.0960401212 
  H         7.0398554197      -.9698355799      5.9242555925 
  H         6.7847947895     -2.6277792856      5.3752503157 
  C         9.0503149719     -3.6736796455      6.6090517370 
  O         8.9188141173     -3.9529531680      7.7758316947 
  N         9.3719165691     -4.5739228248      5.6677501327 
  H         9.5559478456     -4.2503057089      4.7465238646 
  C         9.6341308265     -5.9749431174      5.9722438678 
  H         9.0159754878     -6.2270827020      6.8243572709 
  C         9.2628796768     -6.8463653585      4.7817584031 
  H         9.4355262939     -7.8896213306      5.0117310663 
  H         8.2154833886     -6.7076976214      4.5361126717 
  H         9.8710167774     -6.6023942087      3.9185708206 
  C        11.1061150093     -6.1730625121      6.3695254599 
  O        11.8715250432     -6.7739656027      5.6669089188 
  N        11.4544522829     -5.6068062158      7.5439827230 
  H        10.7395873447     -5.1558943376      8.0721865726 
  C        12.7742871724     -5.7584419924      8.1411690430 
  H        12.7489845831     -5.1512138960      9.0421288817 
  C        13.0871116848     -7.1991187047      8.5386505855 
  H        14.0384548038     -7.2420816609      9.0502299962 
  H        12.3093275730     -7.5673276477      9.2006387518 
  H        13.1401789255     -7.8337354648      7.6652097410 
  C        13.9030958925     -5.1524320700      7.2957843467 
  O        15.0115858740     -5.6169281469      7.3386118565 
  N        13.6113321788     -4.0338906197      6.6125954986 
  H        12.6801764177     -3.6913419834      6.5706553954 
  C        14.6249762220     -3.3620873416      5.8313381502 
  H        14.9488016523     -3.9720261736      4.9942392641 
  H        14.2044692934     -2.4379411694      5.4602532169 
  H        15.4925540067     -3.1415487387      6.4406623948 
