18
 ch3sh_benzene_cs, factor= 0.9, energy= -2.80
 S         0.779515        2.257972        0.000000
 C        -1.015571        2.488997        0.000000
 H         0.754913        0.923350        0.000000
 H        -1.190627        3.561804        0.000000
 H        -1.466354        2.058713       -0.889264
 H        -1.466354        2.058713        0.889264
 C         0.686896       -1.340223       -1.207526
 C        -0.665660       -1.002381       -1.207375
 C        -1.342270       -0.835407        0.000000
 C        -0.665660       -1.002381        1.207375
 C         0.686896       -1.340223        1.207526
 C         1.362850       -1.510703        0.000000
 H        -1.189475       -0.870380       -2.144286
 H        -2.392456       -0.576613        0.000000
 H        -1.189475       -0.870380        2.144286
 H         1.212255       -1.467241        2.144045
 H         2.412314       -1.771475        0.000000
 H         1.212255       -1.467241       -2.144045
18
 ch3sh_benzene_cs, factor= 0.95, energy= -3.32
 S         0.779515        2.257972        0.000000
 C        -1.015571        2.488997        0.000000
 H         0.754913        0.923350        0.000000
 H        -1.190627        3.561804        0.000000
 H        -1.466354        2.058713       -0.889264
 H        -1.466354        2.058713        0.889264
 C         0.645552       -1.456594       -1.207526
 C        -0.707004       -1.118752       -1.207375
 C        -1.383614       -0.951778        0.000000
 C        -0.707004       -1.118752        1.207375
 C         0.645552       -1.456594        1.207526
 C         1.321506       -1.627074        0.000000
 H        -1.230819       -0.986751       -2.144286
 H        -2.433800       -0.692984        0.000000
 H        -1.230819       -0.986751        2.144286
 H         1.170911       -1.583612        2.144045
 H         2.370970       -1.887846        0.000000
 H         1.170911       -1.583612       -2.144045
18
 ch3sh_benzene_cs, factor= 1.0, energy= -3.50
 S         0.779515        2.257972        0.000000
 C        -1.015571        2.488997        0.000000
 H         0.754913        0.923350        0.000000
 H        -1.190627        3.561804        0.000000
 H        -1.466354        2.058713       -0.889264
 H        -1.466354        2.058713        0.889264
 C         0.604208       -1.572965       -1.207526
 C        -0.748348       -1.235123       -1.207375
 C        -1.424958       -1.068149        0.000000
 C        -0.748348       -1.235123        1.207375
 C         0.604208       -1.572965        1.207526
 C         1.280162       -1.743444        0.000000
 H        -1.272163       -1.103122       -2.144286
 H        -2.475144       -0.809355        0.000000
 H        -1.272163       -1.103122        2.144286
 H         1.129567       -1.699983        2.144045
 H         2.329626       -2.004217        0.000000
 H         1.129567       -1.699983       -2.144045
18
 ch3sh_benzene_cs, factor= 1.05, energy= -3.46
 S         0.779515        2.257972        0.000000
 C        -1.015571        2.488997        0.000000
 H         0.754913        0.923350        0.000000
 H        -1.190627        3.561804        0.000000
 H        -1.466354        2.058713       -0.889264
 H        -1.466354        2.058713        0.889264
 C         0.562864       -1.689336       -1.207526
 C        -0.789692       -1.351494       -1.207375
 C        -1.466302       -1.184520        0.000000
 C        -0.789692       -1.351494        1.207375
 C         0.562864       -1.689336        1.207526
 C         1.238818       -1.859815        0.000000
 H        -1.313507       -1.219493       -2.144286
 H        -2.516488       -0.925725        0.000000
 H        -1.313507       -1.219493        2.144286
 H         1.088223       -1.816354        2.144045
 H         2.288281       -2.120588        0.000000
 H         1.088223       -1.816354       -2.144045
18
 ch3sh_benzene_cs, factor= 1.1, energy= -3.29
 S         0.779515        2.257972        0.000000
 C        -1.015571        2.488997        0.000000
 H         0.754913        0.923350        0.000000
 H        -1.190627        3.561804        0.000000
 H        -1.466354        2.058713       -0.889264
 H        -1.466354        2.058713        0.889264
 C         0.521520       -1.805707       -1.207526
 C        -0.831036       -1.467865       -1.207375
 C        -1.507646       -1.300891        0.000000
 C        -0.831036       -1.467865        1.207375
 C         0.521520       -1.805707        1.207526
 C         1.197474       -1.976186        0.000000
 H        -1.354851       -1.335864       -2.144286
 H        -2.557832       -1.042096        0.000000
 H        -1.354851       -1.335864        2.144286
 H         1.046879       -1.932724        2.144045
 H         2.246938       -2.236959        0.000000
 H         1.046879       -1.932724       -2.144045
18
 ch3sh_benzene_cs, factor= 1.25, energy= -2.51
 S         0.779515        2.257972        0.000000
 C        -1.015571        2.488997        0.000000
 H         0.754913        0.923350        0.000000
 H        -1.190627        3.561804        0.000000
 H        -1.466354        2.058713       -0.889264
 H        -1.466354        2.058713        0.889264
 C         0.397488       -2.154820       -1.207526
 C        -0.955068       -1.816977       -1.207375
 C        -1.631678       -1.650004        0.000000
 C        -0.955068       -1.816977        1.207375
 C         0.397488       -2.154820        1.207526
 C         1.073442       -2.325299        0.000000
 H        -1.478883       -1.684977       -2.144286
 H        -2.681865       -1.391209        0.000000
 H        -1.478883       -1.684977        2.144286
 H         0.922847       -2.281837        2.144045
 H         2.122905       -2.586072        0.000000
 H         0.922847       -2.281837       -2.144045
18
 ch3sh_benzene_cs, factor= 1.5, energy= -1.39
 S         0.779515        2.257972        0.000000
 C        -1.015571        2.488997        0.000000
 H         0.754913        0.923350        0.000000
 H        -1.190627        3.561804        0.000000
 H        -1.466354        2.058713       -0.889264
 H        -1.466354        2.058713        0.889264
 C         0.190767       -2.736675       -1.207526
 C        -1.161788       -2.398832       -1.207375
 C        -1.838398       -2.231858        0.000000
 C        -1.161788       -2.398832        1.207375
 C         0.190767       -2.736675        1.207526
 C         0.866722       -2.907154        0.000000
 H        -1.685603       -2.266832       -2.144286
 H        -2.888585       -1.973064        0.000000
 H        -1.685603       -2.266832        2.144286
 H         0.716127       -2.863692        2.144045
 H         1.916185       -3.167927        0.000000
 H         0.716127       -2.863692       -2.144045
18
 ch3sh_benzene_cs, factor= 2.0, energy= -0.45
 S         0.779515        2.257972        0.000000
 C        -1.015571        2.488997        0.000000
 H         0.754913        0.923350        0.000000
 H        -1.190627        3.561804        0.000000
 H        -1.466354        2.058713       -0.889264
 H        -1.466354        2.058713        0.889264
 C        -0.222673       -3.900384       -1.207526
 C        -1.575229       -3.562541       -1.207375
 C        -2.251839       -3.395568        0.000000
 C        -1.575229       -3.562541        1.207375
 C        -0.222673       -3.900384        1.207526
 C         0.453281       -4.070864        0.000000
 H        -2.099044       -3.430541       -2.144286
 H        -3.302025       -3.136773        0.000000
 H        -2.099044       -3.430541        2.144286
 H         0.302686       -4.027402        2.144045
 H         1.502744       -4.331636        0.000000
 H         0.302686       -4.027402       -2.144045
