12
 ch3sh_dimer, factor= 0.9, energy= -2.62
 C        -1.008555        1.467314        0.621010
 S         0.398428        1.511492       -0.517887
 H        -1.442007        0.476504        0.513146
 H        -1.752478        2.212118        0.356811
 H        -0.687832        1.603909        1.649130
 H         0.804153        2.747764       -0.227760
 C         0.896802       -1.790414        0.800079
 S        -0.430447       -1.911330       -0.426467
 H         0.530684       -2.284804        1.695862
 H         1.120799       -0.753008        1.029395
 H         1.792823       -2.300782        0.461195
 H         0.177021       -1.201173       -1.377499
12
 ch3sh_dimer, factor= 0.95, energy= -3.09
 C        -0.996255        1.618017        0.668766
 S         0.410729        1.662195       -0.470131
 H        -1.429707        0.627207        0.560902
 H        -1.740177        2.362822        0.404567
 H        -0.675532        1.754613        1.696887
 H         0.816454        2.898467       -0.180004
 C         0.896802       -1.790414        0.800079
 S        -0.430447       -1.911330       -0.426467
 H         0.530684       -2.284804        1.695862
 H         1.120799       -0.753008        1.029395
 H         1.792823       -2.300782        0.461195
 H         0.177021       -1.201173       -1.377499
12
 ch3sh_dimer, factor= 1.0, energy= -3.15
 C        -0.983954        1.768721        0.716523
 S         0.423029        1.812899       -0.422374
 H        -1.417406        0.777911        0.608658
 H        -1.727877        2.513526        0.452324
 H        -0.663231        1.905316        1.744643
 H         0.828754        3.049171       -0.132248
 C         0.896802       -1.790414        0.800079
 S        -0.430447       -1.911330       -0.426467
 H         0.530684       -2.284804        1.695862
 H         1.120799       -0.753008        1.029395
 H         1.792823       -2.300782        0.461195
 H         0.177021       -1.201173       -1.377499
12
 ch3sh_dimer, factor= 1.05, energy= -2.99
 C        -0.971654        1.919425        0.764279
 S         0.435329        1.963603       -0.374618
 H        -1.405106        0.928615        0.656414
 H        -1.715576        2.664229        0.500080
 H        -0.650931        2.056020        1.792399
 H         0.841055        3.199875       -0.084492
 C         0.896802       -1.790414        0.800079
 S        -0.430447       -1.911330       -0.426467
 H         0.530684       -2.284804        1.695862
 H         1.120799       -0.753008        1.029395
 H         1.792823       -2.300782        0.461195
 H         0.177021       -1.201173       -1.377499
12
 ch3sh_dimer, factor= 1.1, energy= -2.72
 C        -0.959353        2.070128        0.812035
 S         0.447630        2.114306       -0.326862
 H        -1.392805        1.079318        0.704171
 H        -1.703276        2.814933        0.547836
 H        -0.638631        2.206724        1.840155
 H         0.853355        3.350578       -0.036735
 C         0.896802       -1.790414        0.800079
 S        -0.430447       -1.911330       -0.426467
 H         0.530684       -2.284804        1.695862
 H         1.120799       -0.753008        1.029395
 H         1.792823       -2.300782        0.461195
 H         0.177021       -1.201173       -1.377499
12
 ch3sh_dimer, factor= 1.25, energy= -1.82
 C        -0.922452        2.522239        0.955304
 S         0.484531        2.566417       -0.183593
 H        -1.355904        1.531429        0.847439
 H        -1.666375        3.267044        0.691105
 H        -0.601729        2.658834        1.983424
 H         0.890256        3.802689        0.106533
 C         0.896802       -1.790414        0.800079
 S        -0.430447       -1.911330       -0.426467
 H         0.530684       -2.284804        1.695862
 H         1.120799       -0.753008        1.029395
 H         1.792823       -2.300782        0.461195
 H         0.177021       -1.201173       -1.377499
12
 ch3sh_dimer, factor= 1.5, energy= -0.84
 C        -0.860950        3.275757        1.194085
 S         0.546033        3.319935        0.055188
 H        -1.294402        2.284947        1.086221
 H        -1.604873        4.020562        0.929886
 H        -0.540227        3.412353        2.222205
 H         0.951759        4.556207        0.345315
 C         0.896802       -1.790414        0.800079
 S        -0.430447       -1.911330       -0.426467
 H         0.530684       -2.284804        1.695862
 H         1.120799       -0.753008        1.029395
 H         1.792823       -2.300782        0.461195
 H         0.177021       -1.201173       -1.377499
12
 ch3sh_dimer, factor= 2.0, energy= -0.23
 C        -0.737946        4.782794        1.671648
 S         0.669037        4.826972        0.532751
 H        -1.171398        3.791983        1.563783
 H        -1.481869        5.527598        1.407449
 H        -0.417223        4.919389        2.699768
 H         1.074763        6.063243        0.822877
 C         0.896802       -1.790414        0.800079
 S        -0.430447       -1.911330       -0.426467
 H         0.530684       -2.284804        1.695862
 H         1.120799       -0.753008        1.029395
 H         1.792823       -2.300782        0.461195
 H         0.177021       -1.201173       -1.377499
