6
 h2o_dimer_cs, factor= 0.9, energy= -4.66
 O        -0.054524        1.581007        0.000000
 H         0.853478        1.886707        0.000000
 H         0.029467        0.619943        0.000000
 O         0.026241       -1.189385        0.000000
 H        -0.419111       -1.577726       -0.756177
 H        -0.419111       -1.577726        0.756177
6
 h2o_dimer_cs, factor= 0.95, energy= -4.96
 O        -0.054524        1.581007        0.000000
 H         0.853478        1.886707        0.000000
 H         0.029467        0.619943        0.000000
 O         0.026062       -1.289904        0.000000
 H        -0.419291       -1.678244       -0.756177
 H        -0.419291       -1.678244        0.756177
6
 h2o_dimer_cs, factor= 1.0, energy= -4.96
 O        -0.054524        1.581007        0.000000
 H         0.853478        1.886707        0.000000
 H         0.029467        0.619943        0.000000
 O         0.025883       -1.390422        0.000000
 H        -0.419470       -1.778763       -0.756177
 H        -0.419470       -1.778763        0.756177
6
 h2o_dimer_cs, factor= 1.05, energy= -4.78
 O        -0.054524        1.581007        0.000000
 H         0.853478        1.886707        0.000000
 H         0.029467        0.619943        0.000000
 O         0.025703       -1.490940        0.000000
 H        -0.419649       -1.879281       -0.756177
 H        -0.419649       -1.879281        0.756177
6
 h2o_dimer_cs, factor= 1.1, energy= -4.50
 O        -0.054524        1.581007        0.000000
 H         0.853478        1.886707        0.000000
 H         0.029467        0.619943        0.000000
 O         0.025524       -1.591458        0.000000
 H        -0.419828       -1.979799       -0.756177
 H        -0.419828       -1.979799        0.756177
6
 h2o_dimer_cs, factor= 1.25, energy= -3.49
 O        -0.054524        1.581007        0.000000
 H         0.853478        1.886707        0.000000
 H         0.029467        0.619943        0.000000
 O         0.024987       -1.893013        0.000000
 H        -0.420366       -2.281354       -0.756177
 H        -0.420366       -2.281354        0.756177
6
 h2o_dimer_cs, factor= 1.5, energy= -2.13
 O        -0.054524        1.581007        0.000000
 H         0.853478        1.886707        0.000000
 H         0.029467        0.619943        0.000000
 O         0.024090       -2.395604        0.000000
 H        -0.421262       -2.783945       -0.756177
 H        -0.421262       -2.783945        0.756177
6
 h2o_dimer_cs, factor= 2.0, energy= -0.88
 O        -0.054524        1.581007        0.000000
 H         0.853478        1.886707        0.000000
 H         0.029467        0.619943        0.000000
 O         0.022298       -3.400787        0.000000
 H        -0.423054       -3.789128       -0.756177
 H        -0.423054       -3.789128        0.756177
