12
 h2o_ch3sch3_cs, factor= 0.9, energy= -4.73
 S         0.621513       -0.789789        0.000000
 C        -0.552898       -0.664999       -1.360784
 H        -1.261461       -1.489855       -1.328509
 H        -1.080381        0.285619       -1.323247
 H         0.012979       -0.722208       -2.287249
 C        -0.552898       -0.664999        1.360784
 H        -1.261461       -1.489855        1.328509
 H         0.012979       -0.722208        2.287249
 H        -1.080381        0.285619        1.323247
 O         0.023613        2.212891        0.000000
 H         0.672304        2.918921        0.000000
 H         0.557593        1.407290        0.000000
12
 h2o_ch3sch3_cs, factor= 0.95, energy= -5.29
 S         0.621513       -0.789789        0.000000
 C        -0.552898       -0.664999       -1.360784
 H        -1.261461       -1.489855       -1.328509
 H        -1.080381        0.285619       -1.323247
 H         0.012979       -0.722208       -2.287249
 C        -0.552898       -0.664999        1.360784
 H        -1.261461       -1.489855        1.328509
 H         0.012979       -0.722208        2.287249
 H        -1.080381        0.285619        1.323247
 O         0.020062        2.334951        0.000000
 H         0.668753        3.040981        0.000000
 H         0.554042        1.529350        0.000000
12
 h2o_ch3sch3_cs, factor= 1.0, energy= -5.35
 S         0.621513       -0.789789        0.000000
 C        -0.552898       -0.664999       -1.360784
 H        -1.261461       -1.489855       -1.328509
 H        -1.080381        0.285619       -1.323247
 H         0.012979       -0.722208       -2.287249
 C        -0.552898       -0.664999        1.360784
 H        -1.261461       -1.489855        1.328509
 H         0.012979       -0.722208        2.287249
 H        -1.080381        0.285619        1.323247
 O         0.016511        2.457011        0.000000
 H         0.665202        3.163040        0.000000
 H         0.550491        1.651410        0.000000
12
 h2o_ch3sch3_cs, factor= 1.05, energy= -5.14
 S         0.621513       -0.789789        0.000000
 C        -0.552898       -0.664999       -1.360784
 H        -1.261461       -1.489855       -1.328509
 H        -1.080381        0.285619       -1.323247
 H         0.012979       -0.722208       -2.287249
 C        -0.552898       -0.664999        1.360784
 H        -1.261461       -1.489855        1.328509
 H         0.012979       -0.722208        2.287249
 H        -1.080381        0.285619        1.323247
 O         0.012960        2.579071        0.000000
 H         0.661651        3.285100        0.000000
 H         0.546940        1.773470        0.000000
12
 h2o_ch3sch3_cs, factor= 1.1, energy= -4.77
 S         0.621513       -0.789789        0.000000
 C        -0.552898       -0.664999       -1.360784
 H        -1.261461       -1.489855       -1.328509
 H        -1.080381        0.285619       -1.323247
 H         0.012979       -0.722208       -2.287249
 C        -0.552898       -0.664999        1.360784
 H        -1.261461       -1.489855        1.328509
 H         0.012979       -0.722208        2.287249
 H        -1.080381        0.285619        1.323247
 O         0.009409        2.701131        0.000000
 H         0.658100        3.407160        0.000000
 H         0.543389        1.895530        0.000000
12
 h2o_ch3sch3_cs, factor= 1.25, energy= -3.44
 S         0.621513       -0.789789        0.000000
 C        -0.552898       -0.664999       -1.360784
 H        -1.261461       -1.489855       -1.328509
 H        -1.080381        0.285619       -1.323247
 H         0.012979       -0.722208       -2.287249
 C        -0.552898       -0.664999        1.360784
 H        -1.261461       -1.489855        1.328509
 H         0.012979       -0.722208        2.287249
 H        -1.080381        0.285619        1.323247
 O        -0.001245        3.067311        0.000000
 H         0.647446        3.773340        0.000000
 H         0.532736        2.261709        0.000000
12
 h2o_ch3sch3_cs, factor= 1.5, energy= -1.81
 S         0.621513       -0.789789        0.000000
 C        -0.552898       -0.664999       -1.360784
 H        -1.261461       -1.489855       -1.328509
 H        -1.080381        0.285619       -1.323247
 H         0.012979       -0.722208       -2.287249
 C        -0.552898       -0.664999        1.360784
 H        -1.261461       -1.489855        1.328509
 H         0.012979       -0.722208        2.287249
 H        -1.080381        0.285619        1.323247
 O        -0.019000        3.677610        0.000000
 H         0.629691        4.383640        0.000000
 H         0.514981        2.872009        0.000000
12
 h2o_ch3sch3_cs, factor= 2.0, energy= -0.58
 S         0.621513       -0.789789        0.000000
 C        -0.552898       -0.664999       -1.360784
 H        -1.261461       -1.489855       -1.328509
 H        -1.080381        0.285619       -1.323247
 H         0.012979       -0.722208       -2.287249
 C        -0.552898       -0.664999        1.360784
 H        -1.261461       -1.489855        1.328509
 H         0.012979       -0.722208        2.287249
 H        -1.080381        0.285619        1.323247
 O        -0.054511        4.898210        0.000000
 H         0.594180        5.604239        0.000000
 H         0.479470        4.092608        0.000000
