6
 h2s_dimer_cs, factor= 0.9, energy= -1.43
 S         0.041076       -2.135096        0.000000
 H        -1.272136       -2.360500        0.000000
 H        -0.130032       -0.810646        0.000000
 S        -0.067871        1.778354        0.000000
 H         0.852766        1.849340       -0.961210
 H         0.852766        1.849340        0.961210
6
 h2s_dimer_cs, factor= 0.95, energy= -1.64
 S         0.041076       -2.135096        0.000000
 H        -1.272136       -2.360500        0.000000
 H        -0.130032       -0.810646        0.000000
 S        -0.064418        1.922187        0.000000
 H         0.856220        1.993174       -0.961210
 H         0.856220        1.993174        0.961210
6
 h2s_dimer_cs, factor= 1.0, energy= -1.67
 S         0.041076       -2.135096        0.000000
 H        -1.272136       -2.360500        0.000000
 H        -0.130032       -0.810646        0.000000
 S        -0.060964        2.066020        0.000000
 H         0.859673        2.137007       -0.961210
 H         0.859673        2.137007        0.961210
6
 h2s_dimer_cs, factor= 1.05, energy= -1.59
 S         0.041076       -2.135096        0.000000
 H        -1.272136       -2.360500        0.000000
 H        -0.130032       -0.810646        0.000000
 S        -0.057511        2.209854        0.000000
 H         0.863127        2.280840       -0.961210
 H         0.863127        2.280840        0.961210
6
 h2s_dimer_cs, factor= 1.1, energy= -1.46
 S         0.041076       -2.135096        0.000000
 H        -1.272136       -2.360500        0.000000
 H        -0.130032       -0.810646        0.000000
 S        -0.054058        2.353687        0.000000
 H         0.866580        2.424674       -0.961210
 H         0.866580        2.424674        0.961210
6
 h2s_dimer_cs, factor= 1.25, energy= -1.01
 S         0.041076       -2.135096        0.000000
 H        -1.272136       -2.360500        0.000000
 H        -0.130032       -0.810646        0.000000
 S        -0.043697        2.785187        0.000000
 H         0.876940        2.856174       -0.961210
 H         0.876940        2.856174        0.961210
6
 h2s_dimer_cs, factor= 1.5, energy= -0.50
 S         0.041076       -2.135096        0.000000
 H        -1.272136       -2.360500        0.000000
 H        -0.130032       -0.810646        0.000000
 S        -0.026431        3.504354        0.000000
 H         0.894207        3.575341       -0.961210
 H         0.894207        3.575341        0.961210
6
 h2s_dimer_cs, factor= 2.0, energy= -0.15
 S         0.041076       -2.135096        0.000000
 H        -1.272136       -2.360500        0.000000
 H        -0.130032       -0.810646        0.000000
 S         0.008103        4.942688        0.000000
 H         0.928740        5.013674       -0.961210
 H         0.928740        5.013674        0.961210
