6
E: -95785.6284047792 kcal/mol
  O   -2.970352835  -0.105737491  -0.000145993
  H   -3.297372618   0.794833676  -0.000000000
  H   -2.011427149  -0.000000000  -0.000000000
  O   -0.002127131   0.000000000   0.000000000
  H    0.552604028  -0.204314312   0.755973872
  H    0.552330357  -0.204880636  -0.756032557
