6
E: -95784.9183227697 kcal/mol
  O   -2.970352835  -0.105737491  -0.000145993
  H   -3.297372618   0.794833676  -0.000000000
  H   -2.011427149  -0.000000000  -0.000000000
  O    0.052616200   0.000000000   0.000000000
  H    0.002206941  -0.454306964   0.843819638
  H    0.757759677  -0.454660580  -0.465876424
