6
E: -95785.1049939789 kcal/mol
  O    0.958925685  -0.105737491   0.000145993
  H    1.285945469   0.794833676   0.000000000
  H    0.000000000   0.000000000   0.000000000
  O   -1.923358963   0.000000000   1.005713574
  H   -2.628923577  -0.454306964   0.540148057
  H   -1.872469884  -0.454660580   1.849323951
