6
E: -95784.9171248412 kcal/mol
  O   -2.970352835  -0.105737491  -0.000145993
  H   -3.297372618   0.794833676  -0.000000000
  H   -2.011427149  -0.000000000  -0.000000000
  O    0.052691135   0.000000000   0.000000000
  H    0.758255748  -0.454306964   0.465565518
  H    0.001802055  -0.454660580  -0.843610376
