9
E: -120383.555960775 kcal/mol
  O   -2.906114058  -0.158620486  -0.132499498
  H   -3.302834886   0.703353732  -0.000000000
  H   -1.962346804  -0.000000000  -0.000000000
  O    0.004850003   0.000000000   0.000000000
  H    0.559144710  -0.115003623   0.775409628
  C    0.724217772  -0.502997711  -1.123037590
  H    0.081712649  -0.373148441  -1.987348554
  H    1.649147029   0.048573573  -1.289453625
  H    0.950107217  -1.564020929  -1.019213445
