9
E: -120382.923674004 kcal/mol
  O   -2.906114058  -0.158620486  -0.132499498
  H   -3.302834886   0.703353732  -0.000000000
  H   -1.962346804  -0.000000000  -0.000000000
  O    0.101338088   0.000000000   0.000000000
  H    0.278889382  -0.537535109   0.775409628
  C    0.025413177  -0.874489618  -1.123037590
  H   -0.183386618  -0.253139225  -1.987348554
  H    0.965552549  -1.399716209  -1.289453625
  H   -0.780515162  -1.600627225  -1.019213445
