9
E: -120381.730954606 kcal/mol
  O   -2.906114058  -0.158620486  -0.132499498
  H   -3.302834886   0.703353732  -0.000000000
  H   -1.962346804  -0.000000000  -0.000000000
  O    0.318225429   0.000000000   0.000000000
  H    1.071853244  -0.376743413   0.460258693
  C    0.078428063  -0.795292680  -1.158325036
  H   -0.779379878  -0.361587352  -1.661089726
  H    0.927754360  -0.780082565  -1.840844487
  H   -0.159679311  -1.827110464  -0.900967883
