9
E: -120383.000142332 kcal/mol
  O    0.943767254  -0.158620486   0.132499498
  H    1.340488082   0.703353732  -0.000000000
  H    0.000000000   0.000000000   0.000000000
  O   -1.894838261   0.000000000   0.981173402
  H   -2.648466076  -0.376743413   0.520914709
  C   -1.655040895  -0.795292680   2.139498438
  H   -0.797232954  -0.361587352   2.642263127
  H   -2.504367192  -0.780082565   2.822017889
  H   -1.416933521  -1.827110464   1.882141285
