10
E: -107921.533703042 kcal/mol
  O   -2.978214285  -0.099862343  -0.008741721
  H   -3.301436732   0.801864381  -0.000000000
  H   -2.011963747  -0.000000000  -0.000000000
  N    0.048046409   0.000000000   0.000000000
  H   -0.108541739  -0.585824712  -0.810327683
  H    0.717165980  -0.499615234   0.571759560
  C    0.623438738   1.279637933  -0.423803127
  H    0.802642041   1.897059277   0.453068868
  H    1.560492417   1.196985486  -0.978491545
  H   -0.095296481   1.803099634  -1.049572330
