10
E: -107921.586741009 kcal/mol
  O    0.966250538  -0.099862343   0.008741721
  H    1.289472985   0.801864381   0.000000000
  H    0.000000000  -0.000000000   0.000000000
  N   -1.946304975   0.000000000  -1.005981873
  H   -2.569775260  -0.585824712  -0.465208718
  H   -1.785706458  -0.499615234  -1.871336200
  C   -2.601025415   1.279637933  -1.292384684
  H   -1.931233642   1.897059277  -1.886015294
  H   -3.549926514   1.196985486  -1.826552766
  H   -2.783589832   1.803099634  -0.357057124
