10
E: -107921.457182898 kcal/mol
  O   -2.978214285  -0.099862343  -0.008741721
  H   -3.301436732   0.801864381  -0.000000000
  H   -2.011963747  -0.000000000  -0.000000000
  N    0.049046202   0.000000000   0.000000000
  H    0.575399626  -0.372561819  -0.780058433
  H    0.553114346  -0.285882101   0.829718089
  C    0.024283620   1.463301927  -0.079328110
  H   -0.529721287   1.856383803   0.769666965
  H    1.008587232   1.936151057  -0.091175531
  H   -0.505532632   1.761853879  -0.980627746
