10
E: -107921.630218646 kcal/mol
  O   -2.978214285  -0.099862343  -0.008741721
  H   -3.301436732   0.801864381  -0.000000000
  H   -2.011963747  -0.000000000  -0.000000000
  N    0.053506354   0.000000000   0.000000000
  H   -0.005964934  -0.642116346  -0.780058433
  H    0.057959264  -0.579476868   0.829718089
  C    1.308381705   0.753095989  -0.079328110
  H    1.371798142   1.429419250   0.769666965
  H    2.210032870   0.137088620  -0.091175531
  H    1.302027154   1.361206298  -0.980627746
