15
E: -203549.733343715 kcal/mol
  O    0.944789578  -0.219680677   0.008484814
  H    1.378737902   0.634372392  -0.000000000
  H    0.000000000   0.000000000   0.000000000
  C   -1.493806698  -2.359205915  -0.689403442
  H   -1.991718863  -3.291815089  -0.942297626
  H   -1.359814965  -2.296944006   0.387633449
  H   -0.500617260  -2.344168823  -1.131202610
  C   -2.247685026  -1.139369979  -1.153845830
  O   -1.829789398   0.000000000  -0.952403375
  N   -3.411557781  -1.381845576  -1.805380852
  H   -3.689787410  -2.337300615  -1.933061852
  C   -4.252969903  -0.320577470  -2.313901984
  H   -3.766522648   0.617941864  -2.069386436
  H   -4.365698398  -0.393859629  -3.393804978
  H   -5.236933703  -0.344507622  -1.849732415
