12
E: -144980.91848465 kcal/mol
  O    0.952902446  -0.001891768   0.160578977
  H    0.000000000   0.000000000   0.000000000
  C    1.404829471   1.326838321   0.000000000
  H    2.472893514   1.334387024   0.200915476
  H    1.249610637   1.702736450  -1.014121917
  H    0.926097320   2.019012435   0.697416847
  O   -1.823458460   0.000000000  -0.968371264
  H   -1.927536175  -0.577163021  -1.728503974
  C   -2.865061752  -0.304372756  -0.044832742
  H   -2.719631151   0.344133402   0.812726397
  H   -3.849587194  -0.106967060  -0.468094538
  H   -2.819151399  -1.338862859   0.294675071
