12
E: -144980.662016152 kcal/mol
  O   -2.889644975  -0.001891768  -0.160578977
  H   -1.936742529  -0.000000000  -0.000000000
  C   -3.341572000   1.326838321  -0.000000000
  H   -4.409636043   1.334387024  -0.200915476
  H   -3.186353166   1.702736450   1.014121917
  H   -2.862839850   2.019012435  -0.697416847
  O    0.065507855   0.000000000   0.000000000
  H    0.169585570  -0.577163021   0.760132709
  C    1.107111148  -0.304372756  -0.923538522
  H    0.961680545   0.344133402  -1.781097662
  H    2.091636589  -0.106967060  -0.500276726
  H    1.061200794  -1.338862859  -1.263046335
