13
E: -132519.889331402 kcal/mol
  O    0.969595742   0.080078772   0.002859582
  H    0.000000000   0.000000000   0.000000000
  C    1.262917101   1.458339364  -0.000000000
  H    2.344737520   1.568126099   0.001849604
  H    0.878455241   1.970233293  -0.887461245
  H    0.874957551   1.974614827   0.883387150
  N   -1.901959127   0.000000000  -0.984680684
  H   -2.592714983  -0.529166030  -0.467868842
  H   -1.792141464  -0.482737619  -1.867375460
  C   -2.402620084   1.357152538  -1.225957634
  H   -1.660361561   1.913843888  -1.792771822
  H   -3.350298184   1.403098328  -1.766455501
  H   -2.530067081   1.863305865  -0.272185753
