13
E: -132518.475891364 kcal/mol
  O   -2.938957111   0.080078772  -0.002859582
  H   -1.969361369   0.000000000   0.000000000
  C   -3.232278470   1.458339364   0.000000000
  H   -4.314098889   1.568126099  -0.001849604
  H   -2.847816610   1.970233293   0.887461245
  H   -2.844318919   1.974614827  -0.883387150
  N    0.320092869   0.000000000   0.000000000
  H    0.878956684  -0.288368126  -0.792950113
  H    0.861316482  -0.244941790   0.819344931
  C    0.121488301   1.452440366  -0.041378511
  H   -0.468113523   1.754845395   0.820626237
  H    1.043316423   2.037711709  -0.047132677
  H   -0.448998453   1.707525204  -0.931092688
