9
E: -120382.980353941 kcal/mol
  O    0.964814880  -0.000822553   0.000687124
  H   -0.000000000   0.000000000   0.000000000
  C    1.382183952   1.349073611   0.000000000
  H    2.468915738   1.353335972   0.000273784
  H    1.042927032   1.891535429  -0.885695490
  H    1.042459843   1.892610442   0.884862436
  O   -1.852852505  -0.992605723  -0.000000000
  H   -2.017458849  -1.558341295  -0.757507038
  H   -2.015383350  -1.561596220   0.755519850
