9
E: -120382.664260983 kcal/mol
  O   -2.950026327  -0.000822553  -0.000687124
  H   -1.985211446   0.000000000  -0.000000000
  C   -3.367395399   1.349073611   0.000000000
  H   -4.454127184   1.353335972  -0.000273784
  H   -3.028138479   1.891535429   0.885695490
  H   -3.027671289   1.892610442  -0.884862436
  O    0.051314956   0.000000000   0.000000000
  H    0.040986883  -0.407638205   0.868730869
  H    0.797353126  -0.411494802  -0.441673839
