13
E: -132516.649323787 kcal/mol
  N   -3.226119825   0.256487382  -0.180303393
  H   -2.262574622   0.000000000   0.000000000
  H   -3.779381550  -0.226800176   0.514782296
  C   -3.377443560   1.698364848   0.000000000
  H   -4.414842044   1.979710554  -0.170527212
  H   -3.084297999   2.080653271   0.983362006
  H   -2.780601221   2.216430221  -0.748463796
  O    0.009754364   0.000000000   0.000000000
  H    0.045523965  -0.493624336  -0.822695596
  C    1.118614353   0.888487369   0.013607765
  H    1.067306803   1.439097772   0.947739310
  H    2.070809345   0.357678138  -0.019784070
  H    1.083094568   1.604343619  -0.808818207
