13
E: -132516.566764186 kcal/mol
  N   -3.226119825   0.256487382  -0.180303393
  H   -2.262574622   0.000000000   0.000000000
  H   -3.779381550  -0.226800176   0.514782296
  C   -3.377443560   1.698364848   0.000000000
  H   -4.414842044   1.979710554  -0.170527212
  H   -3.084297999   2.080653271   0.983362006
  H   -2.780601221   2.216430221  -0.748463796
  O    0.077925282   0.000000000   0.000000000
  H   -0.092849708  -0.409606415  -0.851370061
  C    0.531647840   1.323882627  -0.246243947
  H    0.721811652   1.775071448   0.722607123
  H    1.458945306   1.340285844  -0.820176959
  H   -0.216179834   1.926072432  -0.764141151
