14
E: -120055.163911052 kcal/mol
  N    0.899975411   0.470322378  -0.000000000
  H   -0.000000000  -0.000000000  -0.000000000
  H    1.551531677  -0.165471128   0.440871011
  C    1.317289366   0.703735305  -1.380846800
  H    2.285752279   1.200561943  -1.390941251
  H    1.393409096  -0.193060701  -2.003864821
  H    0.608151532   1.377430470  -1.858431818
  N   -2.051889016  -1.138301094   0.000000000
  H   -2.214431279  -1.188665375   0.997670364
  H   -2.423870099  -1.998746581  -0.380592755
  C   -2.788495163   0.002553345  -0.552305921
  H   -2.652888031   0.021976431  -1.631475907
  H   -3.861692237   0.000080506  -0.346442287
  H   -2.362819894   0.920549384  -0.153824565
