19
E: -215682.974291225 kcal/mol
  N   -3.044733712   0.618993928   0.020680770
  H   -2.241270063   0.000000000  -0.000000000
  H   -3.853943497   0.030739041   0.169615517
  C   -2.897370200   1.533481860   1.151840245
  H   -3.758895612   2.197267700   1.198307407
  H   -2.788201659   1.051368407   2.127897830
  H   -2.018381371   2.156795008   0.994324901
  C    0.442207992   1.428815537  -1.871487196
  H    0.260195814   0.654307746  -2.612901313
  H    1.234635054   2.084641559  -2.224548394
  H   -0.478970283   1.996583388  -1.750177588
  C    0.759092118   0.767077080  -0.554681333
  O   -0.022816779   0.000000000   0.000000000
  N    1.955138614   1.092270563   0.000000000
  H    2.594574504   1.658093139  -0.526017527
  C    2.380353258   0.501229266   1.250382340
  H    1.529788350   0.456513478   1.924166746
  H    2.757222443  -0.512188812   1.114644936
  H    3.159345825   1.116604529   1.690922123
