10
E: -107922.073913677 kcal/mol
  N    0.000000000   0.000000000   0.000000000
  H    0.448498776  -0.394747714  -0.816644098
  H    0.479546247  -0.398632422   0.796814941
  C    0.175123597   1.457336415   0.000000000
  H   -0.307009369   1.870241020   0.882146780
  H    1.215108726   1.789181054  -0.014912441
  H   -0.332735816   1.872908035  -0.866441202
  O   -2.658432207   0.265124471   1.443792741
  H   -1.840993884  -0.000000000   0.989803066
  H   -2.999215147  -0.555526738   1.801733374
