19
E: -215683.461516696 kcal/mol
  C   -2.979791091   2.331430100  -0.527671467
  H   -1.959723626   2.068475850  -0.797719112
  H   -2.964073849   3.110767245   0.231459516
  H   -3.493269208   2.732021573  -1.397941452
  C   -3.770965743   1.155250465  -0.000000000
  O   -4.969327281   1.239269291   0.252588752
  N   -3.065071975   0.014805810   0.173953876
  H   -2.065725704   0.000000000  -0.000000000
  C   -3.719853319  -1.160436520   0.701589434
  H   -4.603456350  -1.398765195   0.113456045
  H   -3.026169761  -1.995887118   0.660896928
  H   -4.040895898  -1.011715118   1.732360661
  N    0.360273470   0.000000000   0.000000000
  H    1.154543956   0.433293616  -0.454068070
  H    0.674159426  -0.925562148   0.263862769
  C    0.012602949   0.758704339   1.207136770
  H   -0.832667592   0.280123616   1.695946542
  H    0.821460931   0.852342946   1.934447260
  H   -0.304513153   1.758503979   0.919958262
