15
E: -203548.192611835 kcal/mol
  C   -2.996825658   2.355281206  -0.000000000
  H   -1.925066884   2.174695936  -0.019039994
  H   -3.251972752   2.937018013   0.882701955
  H   -3.282757327   2.940601354  -0.870662711
  C   -3.815206424   1.084031439   0.011629553
  O   -5.040943417   1.107296823   0.023245829
  N   -3.086151530  -0.062084234   0.009146070
  H   -2.080870340   0.000000000  -0.000000000
  C   -3.716657691  -1.361472162   0.020782645
  H   -4.789937670  -1.199611636   0.043022782
  H   -3.461742148  -1.932931960  -0.870763271
  H   -3.424229689  -1.933822542   0.899950559
  O    0.030204949   0.000000000   0.000000000
  H    0.910827197  -0.072957156   0.373948811
  H    0.162001651  -0.145164706  -0.939271908
