14
E: -203367.251482103 kcal/mol
  O    0.969296238   0.000347206  -0.051085779
  H    1.242292350  -0.006080785   0.867304819
  H    0.000000000  -0.000000000   0.000000000
  N   -1.872414414   0.000000000  -0.997759954
  C   -2.442986158   1.145107310  -1.396589275
  H   -1.968534670   2.055655167  -1.053255009
  C   -3.574200355   1.195867844  -2.205237967
  H   -3.989400960   2.150455836  -2.494501328
  C   -4.148551054   0.001382955  -2.627126707
  H   -5.027212215   0.001906544  -3.256959318
  C   -3.564348010  -1.193772107  -2.221031005
  H   -3.971703403  -2.147854203  -2.522883363
  C   -2.433541484  -1.144393433  -1.411705506
  H   -1.951613650  -2.055451209  -1.080383905
