16
E: -287033.644175062 kcal/mol
  C    1.084240528   0.105902062  -0.000355653
  O    0.374578313   1.103994580  -0.000000000
  O    0.619379099  -1.133255197   0.000141035
  H   -0.374578313  -1.103994580   0.000000000
  C    2.580667588   0.160154805  -0.003332288
  H    2.912078553   1.191148216   0.014989869
  H    2.963948384  -0.376626122   0.861038361
  H    2.956835843  -0.340842073  -0.892248635
  C   -3.072299483  -1.479679216   0.000193382
  O   -1.958604474  -1.989190073  -0.000127928
  O   -3.289321422  -0.174016384   0.000225441
  H   -2.413838046   0.297612897   0.000127928
  C   -4.341147236  -2.274842076   0.000883671
  H   -4.112509080  -3.333490775  -0.001560610
  H   -4.927704060  -2.016985118   0.879364287
  H   -4.931217473  -2.013431481  -0.874224336
