17
E: -204668.961545448 kcal/mol
  N   -0.095808556  -1.391669444  -0.000003633
  C   -0.050058704  -0.690167645  -1.140097931
  H   -0.089035212  -1.269326540  -2.054747860
  C    0.047855972   0.698073733  -1.193146978
  H    0.084407953   1.202007947  -2.148657828
  C    0.101689583   1.409662471   0.000011275
  H    0.179750434   2.488086240   0.000000000
  C    0.047891316   0.698058524   1.193142496
  H    0.084435196   1.201983120   2.148651688
  C   -0.049974203  -0.690176668   1.140097781
  H   -0.088838138  -1.269342074   2.054725318
  C   -3.378203192   0.000338132   2.271652892
  H   -2.967723310  -0.911458867   2.680843816
  H   -3.225921942   0.911333694   2.832998839
  C   -4.044613607  -0.000164902   1.117550438
  H   -4.193468029  -0.912366629   0.558061912
  H   -4.455017779   0.910427577   0.704460479
