23
E: -173001.918155461 kcal/mol
  C   -3.816037853   0.666188688  -0.000000000
  H   -3.017847234   1.228381528  -0.463308713
  H   -4.615115322   1.228111826   0.462114152
  C   -3.816008648  -0.666185528   0.000158219
  H   -3.017714904  -1.228422530  -0.463083891
  H   -4.614968366  -1.228108483   0.462393102
  C   -0.048383789  -2.196613215  -0.332160363
  H   -0.807782034  -1.792886594  -1.002329493
  H    0.710656544  -2.677027806  -0.949427869
  H   -0.518105654  -2.965473457   0.279365278
  C    0.565622600  -1.093789847   0.520093748
  H    1.308126251  -1.522281273   1.197226744
  H   -0.202330183  -0.640255647   1.150468426
  C    1.224633762  -0.007054334  -0.318403172
  H    1.999085401  -0.454831914  -0.948369130
  H    0.484793390   0.419587634  -1.002825975
  C    1.837102176   1.107940293   0.518240588
  H    2.580040050   0.679981825   1.195096783
  H    1.060981646   1.547041716   1.148803632
  C    2.484373473   2.190097014  -0.335960060
  H    1.754417579   2.645087524  -1.006017446
  H    2.916000970   2.982015759   0.274151718
  H    3.279352234   1.772131961  -0.953523934
