16
E: -193833.315430639 kcal/mol
  C   -2.435191461  -1.394165287  -0.000029854
  H   -2.430452296  -2.475441746  -0.000086836
  C   -2.435577770  -0.697152051   1.207414345
  H   -2.431361929  -1.237830135   2.143792571
  C   -2.435832384   0.697037050   1.207355898
  H   -2.431716603   1.237844917   2.143669835
  C   -2.435895116   1.394204210   0.000019385
  H   -2.431798632   2.475472444  -0.000000000
  C   -2.435416388   0.697118653  -1.207378923
  H   -2.430689907   1.237732561  -2.143800251
  C   -2.434915836  -0.697052764  -1.207362639
  H   -2.429901864  -1.237656629  -2.143792341
  C    0.985940232  -0.527889161   0.005862046
  H    0.061887960   0.000000000   0.000000000
  C    2.038868658  -1.129174341   0.012979447
  H    2.960515095  -1.655457424   0.019115823
