8
E: -96837.4245413478 kcal/mol
  C   -2.715006827   0.605921676   0.000025733
  H   -2.717708081   1.667940219  -0.000000000
  C   -2.715450840  -0.605921676  -0.000025733
  H   -2.718865708  -1.667942477  -0.000130316
  C    1.015066668   0.000173946  -0.528573026
  H    0.091833025   0.000000000   0.000000000
  C    2.067019903   0.000441157  -1.130672949
  H    2.988314960   0.000494151  -1.657809620
