8
E: -96837.451910628 kcal/mol
  C   -2.715006827   0.605921676   0.000025733
  H   -2.717708081   1.667940219  -0.000000000
  C   -2.715450840  -0.605921676  -0.000025733
  H   -2.718865708  -1.667942477  -0.000130316
  C    1.012468154  -0.531764509   0.003859153
  H    0.091077114   0.000000000   0.000000000
  C    2.062283600  -1.137567191   0.008401942
  H    2.981538263  -1.668237926   0.012535722
