8
E: -96837.4195219921 kcal/mol
  C   -2.715006827   0.605921676   0.000025733
  H   -2.717708081   1.667940219  -0.000000000
  C   -2.715450840  -0.605921676  -0.000025733
  H   -2.718865708  -1.667942477  -0.000130316
  C    1.013694928   0.000173946   0.535257276
  H    0.094320438   0.000000000   0.000000000
  C    2.061105374   0.000441157   1.145225539
  H    2.978266651   0.000494151   1.679522127
