8
E: -96837.6131833733 kcal/mol
  C   -0.000222006   0.605921676  -0.000025733
  H    0.002479248   1.667940219  -0.000000000
  C    0.000222006  -0.605921676   0.000025733
  H    0.003636875  -1.667942477   0.000130316
  C   -3.274630784   0.000173946   1.886187443
  H   -2.351397140   0.000000000   1.357614416
  C   -4.326584019   0.000441157   2.488287365
  H   -5.247879075   0.000494151   3.015424036
