8
E: -96837.4522672274 kcal/mol
  C   -2.715006827   0.605921676   0.000025733
  H   -2.717708081   1.667940219  -0.000000000
  C   -2.715450840  -0.605921676  -0.000025733
  H   -2.718865708  -1.667942477  -0.000130316
  C    1.012357206   0.532065793   0.003859153
  H    0.091140112   0.000000000   0.000000000
  C    2.061905441   1.138331297   0.008401942
  H    2.981107110   1.669093821   0.012535722
