20
E: -288929.671908216 kcal/mol
  C    0.048680417   0.697823526  -1.206975774
  H    0.051986195   0.156115125  -2.142706978
  C    0.081016210   2.091969214  -1.206776512
  H    0.112490301   2.632031521  -2.142989573
  C    0.065608979   2.789580184   0.000128372
  H    0.084172763   3.870600766   0.000000000
  C    0.021907309   2.093223254   1.207168195
  H    0.007268464   2.634295794   2.143214343
  C   -0.010798125   0.699117475   1.207314076
  H   -0.054610040   0.158045489   2.142355904
  C    0.000000000   0.000000000   0.000000000
  H   -0.047952789  -1.079407937  -0.000019595
  C   -3.748021820   0.000000000  -1.935467770
  O   -3.296786551  -1.069127858  -1.592348977
  O   -3.152085402   1.179100991  -1.657635608
  H   -2.344858444   0.966890596  -1.157072127
  C   -5.017345324   0.205669628  -2.708203132
  H   -5.462299449  -0.755178161  -2.937064714
  H   -5.706979347   0.807825961  -2.121105178
  H   -4.804495306   0.750883070  -3.624594702
