15
E: -193305.750388363 kcal/mol
  C   -3.452040544   0.693179625  -1.207556891
  H   -3.508495189   1.230555387  -2.144144625
  C   -3.303525934  -0.692945368  -1.207895407
  H   -3.242106557  -1.230324257  -2.144054074
  C   -3.229761419  -1.386375244  -0.000000000
  H   -3.113120141  -2.461366176  -0.000000000
  C   -3.303525935  -0.692945368   1.207895407
  H   -3.242106557  -1.230324257   2.144054074
  C   -3.452040544   0.693179625   1.207556891
  H   -3.508495189   1.230555387   2.144144625
  C   -3.526737523   1.385901466   0.000000000
  H   -3.644389997   2.460966658   0.000000000
  O    0.039103444  -0.005823156   0.000000000
  H   -0.490073153   0.793946343   0.000000000
  H   -0.625274171  -0.701513258  -0.000000000
