7
E: -96311.0643633419 kcal/mol
  C   -3.298721922   0.002866326   0.012517694
  H   -2.232212498  -0.000000000  -0.000000000
  C   -4.511276941   0.006315057   0.027716353
  H   -5.572455126   0.009157625   0.039985394
  O    0.029358471   0.000000000   0.000000000
  H    0.146403382   0.952087505   0.000000000
  H    0.892766831  -0.338694142   0.244783796
