7
E: -96311.1744685763 kcal/mol
  C    1.066509423   0.002866326  -0.012517694
  H    0.000000000   0.000000000   0.000000000
  C    2.279064443   0.006315057  -0.027716353
  H    3.340242628   0.009157625  -0.039985394
  O   -2.080164698  -1.116106249   0.000000000
  H   -2.963219119  -0.741426363   0.000000000
  H   -2.218551147  -2.033186894  -0.244783796
