7
E: -96311.1451286648 kcal/mol
  C    1.066509423   0.002866326  -0.012517694
  H    0.000000000   0.000000000   0.000000000
  C    2.279064443   0.006315057  -0.027716353
  H    3.340242628   0.009157625  -0.039985394
  O   -2.081980851   0.000000000  -1.116106249
  H   -2.582030517   0.766009510  -1.404810058
  H   -2.460486358  -0.725021911  -1.617288486
