12
E: -191935.16165435 kcal/mol
  C   -0.114382667  -0.595668054  -0.000005252
  H   -0.363714818  -1.630117102  -0.000060326
  C    0.114382667   0.595668054   0.000005252
  H    0.334267817   1.634805691   0.000000000
  C   -3.100702787  -2.981075841  -0.003055003
  O   -1.955489674  -3.375534446  -0.001629224
  O   -3.432775347  -1.673360173  -0.001796907
  H   -2.598662084  -1.171183202  -0.000000000
  C   -4.321301645  -3.851075555  -0.006309968
  H   -4.024403971  -4.892815080  -0.010089323
  H   -4.925116290  -3.634903689   0.871883364
  H   -4.925384471  -3.628301750  -0.882618703
