15
E: -203893.282694314 kcal/mol
  N    0.000000000   0.000000000   0.000000000
  C    0.696544186   1.144910936   0.000000000
  H    0.112284709   2.055683549  -0.045060447
  C    2.086287442   1.200511554   0.053934788
  H    2.590107983   2.156364025   0.051326396
  C    2.800753130   0.008511636   0.111034720
  H    3.880991842   0.011791357   0.153229018
  C    2.091175523  -1.187782763   0.112539856
  H    2.598990381  -2.140483524   0.156723878
  C    0.701238837  -1.140639721   0.056151446
  H    0.120770988  -2.054882189   0.055990653
  C   -3.953625133  -0.006170126   2.321627919
  H   -4.857662452  -0.009459048   2.877577270
  C   -2.919923856  -0.002513959   1.686078096
  H   -2.006699539  -0.000000000   1.126483621
