10
 ch3sh_nh3_cs, factor= 0.9, energy= -2.65
 S         0.688470        0.927763        0.000000
 C        -1.047914        1.441629        0.000000
 H         0.448624       -0.389852        0.000000
 H        -1.563201        1.091686        0.889402
 H        -1.054459        2.528211        0.000000
 H        -1.563201        1.091686       -0.889402
 N        -0.033322       -2.437364        0.000000
 H         0.387525       -2.877597       -0.808104
 H         0.387525       -2.877597        0.808104
 H        -1.003309       -2.725323        0.000000
10
 ch3sh_nh3_cs, factor= 0.95, energy= -2.91
 S         0.688470        0.927763        0.000000
 C        -1.047914        1.441629        0.000000
 H         0.448624       -0.389852        0.000000
 H        -1.563201        1.091686        0.889402
 H        -1.054459        2.528211        0.000000
 H        -1.563201        1.091686       -0.889402
 N        -0.060096       -2.551114        0.000000
 H         0.360750       -2.991348       -0.808104
 H         0.360750       -2.991348        0.808104
 H        -1.030084       -2.839074        0.000000
10
 ch3sh_nh3_cs, factor= 1.0, energy= -2.95
 S         0.688470        0.927763        0.000000
 C        -1.047914        1.441629        0.000000
 H         0.448624       -0.389852        0.000000
 H        -1.563201        1.091686        0.889402
 H        -1.054459        2.528211        0.000000
 H        -1.563201        1.091686       -0.889402
 N        -0.086871       -2.664865        0.000000
 H         0.333975       -3.105098       -0.808104
 H         0.333975       -3.105098        0.808104
 H        -1.056859       -2.952825        0.000000
10
 ch3sh_nh3_cs, factor= 1.05, energy= -2.86
 S         0.688470        0.927763        0.000000
 C        -1.047914        1.441629        0.000000
 H         0.448624       -0.389852        0.000000
 H        -1.563201        1.091686        0.889402
 H        -1.054459        2.528211        0.000000
 H        -1.563201        1.091686       -0.889402
 N        -0.113646       -2.778616        0.000000
 H         0.307201       -3.218849       -0.808104
 H         0.307201       -3.218849        0.808104
 H        -1.083634       -3.066576        0.000000
10
 ch3sh_nh3_cs, factor= 1.1, energy= -2.70
 S         0.688470        0.927763        0.000000
 C        -1.047914        1.441629        0.000000
 H         0.448624       -0.389852        0.000000
 H        -1.563201        1.091686        0.889402
 H        -1.054459        2.528211        0.000000
 H        -1.563201        1.091686       -0.889402
 N        -0.140421       -2.892366        0.000000
 H         0.280426       -3.332600       -0.808104
 H         0.280426       -3.332600        0.808104
 H        -1.110408       -3.180326        0.000000
10
 ch3sh_nh3_cs, factor= 1.25, energy= -2.06
 S         0.688470        0.927763        0.000000
 C        -1.047914        1.441629        0.000000
 H         0.448624       -0.389852        0.000000
 H        -1.563201        1.091686        0.889402
 H        -1.054459        2.528211        0.000000
 H        -1.563201        1.091686       -0.889402
 N        -0.220745       -3.233618        0.000000
 H         0.200102       -3.673852       -0.808104
 H         0.200102       -3.673852        0.808104
 H        -1.190733       -3.521578        0.000000
10
 ch3sh_nh3_cs, factor= 1.5, energy= -1.18
 S         0.688470        0.927763        0.000000
 C        -1.047914        1.441629        0.000000
 H         0.448624       -0.389852        0.000000
 H        -1.563201        1.091686        0.889402
 H        -1.054459        2.528211        0.000000
 H        -1.563201        1.091686       -0.889402
 N        -0.354619       -3.802372        0.000000
 H         0.066228       -4.242605       -0.808104
 H         0.066228       -4.242605        0.808104
 H        -1.324607       -4.090331        0.000000
10
 ch3sh_nh3_cs, factor= 2.0, energy= -0.43
 S         0.688470        0.927763        0.000000
 C        -1.047914        1.441629        0.000000
 H         0.448624       -0.389852        0.000000
 H        -1.563201        1.091686        0.889402
 H        -1.054459        2.528211        0.000000
 H        -1.563201        1.091686       -0.889402
 N        -0.622366       -4.939878        0.000000
 H        -0.201520       -5.380112       -0.808104
 H        -0.201520       -5.380112        0.808104
 H        -1.592354       -5.227838        0.000000
