6
 h2o_h2s_cs, factor= 0.9, energy= -2.63
 O         0.046884       -2.293802        0.000000
 H        -0.805511       -2.732678        0.000000
 H        -0.179936       -1.358345        0.000000
 S        -0.079242        0.997045        0.000000
 H         0.838431        0.888975       -0.960960
 H         0.838431        0.888975        0.960960
6
 h2o_h2s_cs, factor= 0.95, energy= -2.90
 O         0.046884       -2.293802        0.000000
 H        -0.805511       -2.732678        0.000000
 H        -0.179936       -1.358345        0.000000
 S        -0.073648        1.127900        0.000000
 H         0.844025        1.019830       -0.960960
 H         0.844025        1.019830        0.960960
6
 h2o_h2s_cs, factor= 1.0, energy= -2.90
 O         0.046884       -2.293802        0.000000
 H        -0.805511       -2.732678        0.000000
 H        -0.179936       -1.358345        0.000000
 S        -0.068054        1.258755        0.000000
 H         0.849620        1.150685       -0.960960
 H         0.849620        1.150685        0.960960
6
 h2o_h2s_cs, factor= 1.05, energy= -2.75
 O         0.046884       -2.293802        0.000000
 H        -0.805511       -2.732678        0.000000
 H        -0.179936       -1.358345        0.000000
 S        -0.062460        1.389610        0.000000
 H         0.855214        1.281540       -0.960960
 H         0.855214        1.281540        0.960960
6
 h2o_h2s_cs, factor= 1.1, energy= -2.53
 O         0.046884       -2.293802        0.000000
 H        -0.805511       -2.732678        0.000000
 H        -0.179936       -1.358345        0.000000
 S        -0.056866        1.520465        0.000000
 H         0.860808        1.412395       -0.960960
 H         0.860808        1.412395        0.960960
6
 h2o_h2s_cs, factor= 1.25, energy= -1.79
 O         0.046884       -2.293802        0.000000
 H        -0.805511       -2.732678        0.000000
 H        -0.179936       -1.358345        0.000000
 S        -0.040084        1.913030        0.000000
 H         0.877590        1.804960       -0.960960
 H         0.877590        1.804960        0.960960
6
 h2o_h2s_cs, factor= 1.5, energy= -0.93
 O         0.046884       -2.293802        0.000000
 H        -0.805511       -2.732678        0.000000
 H        -0.179936       -1.358345        0.000000
 S        -0.012113        2.567306        0.000000
 H         0.905561        2.459236       -0.960960
 H         0.905561        2.459236        0.960960
6
 h2o_h2s_cs, factor= 2.0, energy= -0.31
 O         0.046884       -2.293802        0.000000
 H        -0.805511       -2.732678        0.000000
 H        -0.179936       -1.358345        0.000000
 S         0.043828        3.875856        0.000000
 H         0.961502        3.767786       -0.960960
 H         0.961502        3.767786        0.960960
