8
 h2s_ch4, factor= 0.9, energy= -0.75
 S         0.080299        1.333240        0.025922
 H        -0.629381        2.461103        0.007509
 H        -1.015174        0.578039       -0.041582
 C        -0.072083       -2.136340       -0.003220
 H        -1.155290       -2.130538       -0.080521
 H         0.279975       -3.162817        0.018873
 H         0.356501       -1.625837       -0.860138
 H         0.230276       -1.631094        0.908877
8
 h2s_ch4, factor= 0.95, energy= -0.87
 S         0.080299        1.333240        0.025922
 H        -0.629381        2.461103        0.007509
 H        -1.015174        0.578039       -0.041582
 C        -0.019689       -2.287139       -0.001088
 H        -1.102896       -2.281337       -0.078390
 H         0.332369       -3.313616        0.021004
 H         0.408895       -1.776636       -0.858007
 H         0.282670       -1.781893        0.911008
8
 h2s_ch4, factor= 1.0, energy= -0.85
 S         0.080299        1.333240        0.025922
 H        -0.629381        2.461103        0.007509
 H        -1.015174        0.578039       -0.041582
 C         0.032704       -2.437938        0.001043
 H        -1.050502       -2.432136       -0.076258
 H         0.384763       -3.464415        0.023136
 H         0.461289       -1.927435       -0.855876
 H         0.335064       -1.932692        0.913139
8
 h2s_ch4, factor= 1.05, energy= -0.77
 S         0.080299        1.333240        0.025922
 H        -0.629381        2.461103        0.007509
 H        -1.015174        0.578039       -0.041582
 C         0.085098       -2.588737        0.003174
 H        -0.998108       -2.582934       -0.074127
 H         0.437157       -3.615214        0.025267
 H         0.513683       -2.078233       -0.853745
 H         0.387458       -2.083491        0.915271
8
 h2s_ch4, factor= 1.1, energy= -0.66
 S         0.080299        1.333240        0.025922
 H        -0.629381        2.461103        0.007509
 H        -1.015174        0.578039       -0.041582
 C         0.137492       -2.739535        0.005305
 H        -0.945714       -2.733733       -0.071996
 H         0.489551       -3.766012        0.027398
 H         0.566077       -2.229032       -0.851613
 H         0.439852       -2.234289        0.917402
8
 h2s_ch4, factor= 1.25, energy= -0.38
 S         0.080299        1.333240        0.025922
 H        -0.629381        2.461103        0.007509
 H        -1.015174        0.578039       -0.041582
 C         0.294674       -3.191932        0.011699
 H        -0.788533       -3.186130       -0.065602
 H         0.646732       -4.218409        0.033792
 H         0.723259       -2.681429       -0.845220
 H         0.597034       -2.686686        0.923796
8
 h2s_ch4, factor= 1.5, energy= -0.14
 S         0.080299        1.333240        0.025922
 H        -0.629381        2.461103        0.007509
 H        -1.015174        0.578039       -0.041582
 C         0.556643       -3.945926        0.022355
 H        -0.526563       -3.940124       -0.054946
 H         0.908702       -4.972404        0.044448
 H         0.985228       -3.435423       -0.834563
 H         0.859003       -3.440680        0.934452
8
 h2s_ch4, factor= 2.0, energy= -0.03
 S         0.080299        1.333240        0.025922
 H        -0.629381        2.461103        0.007509
 H        -1.015174        0.578039       -0.041582
 C         1.080582       -5.453914        0.043668
 H        -0.002624       -5.448112       -0.033633
 H         1.432641       -6.480392        0.065761
 H         1.509167       -4.943411       -0.813251
 H         1.382942       -4.948668        0.955765
